This is my first git file.
New line. - changes completed